output/1_QUEB_1/Cargas_BT_SA11_1_QUEB_1.dss
New "Load.BT_233150_M1" bus1="UC233150.1.2.3.4" phases=3 conn=delta model=2 kv=0.38 kw = 1.5996210637781574 pf=0.92 status=variable vmaxpu=1.5 vminpu=0.93 daily="RU8_SA" 
New "Load.BT_233150_M2" bus1="UC233150.1.2.3.4" phases=3 conn=delta model=3 kv=0.38 kw = 1.5996210637781574 pf=0.92 status=variable vmaxpu=1.5 vminpu=0.93 daily="RU8_SA"
 
New "Load.BT_233144_M1" bus1="UC233144.1.2.4" phases=2 conn=delta model=2 kv=0.38 kw = 0.23995553949699364 pf=0.92 status=variable vmaxpu=1.5 vminpu=0.93 daily="RU5_SA" 
New "Load.BT_233144_M2" bus1="UC233144.1.2.4" phases=2 conn=delta model=3 kv=0.38 kw = 0.23995553949699364 pf=0.92 status=variable vmaxpu=1.5 vminpu=0.93 daily="RU5_SA"
 
New "Load.BT_232530_M1" bus1="UC232530.1.2.4" phases=2 conn=delta model=2 kv=0.38 kw = 0.23788276417806425 pf=0.92 status=variable vmaxpu=1.5 vminpu=0.93 daily="RU3_SA" 
New "Load.BT_232530_M2" bus1="UC232530.1.2.4" phases=2 conn=delta model=3 kv=0.38 kw = 0.23788276417806425 pf=0.92 status=variable vmaxpu=1.5 vminpu=0.93 daily="RU3_SA"
 
New "Load.BT_231938_M1" bus1="UC231938.1.4" phases=1 conn=delta model=2 kv=0.22 kw = 0.31050917262417427 pf=0.92 status=variable vmaxpu=1.5 vminpu=0.93 daily="RU6_SA" 
New "Load.BT_231938_M2" bus1="UC231938.1.4" phases=1 conn=delta model=3 kv=0.22 kw = 0.31050917262417427 pf=0.92 status=variable vmaxpu=1.5 vminpu=0.93 daily="RU6_SA"
 
New "Load.BT_2831932_M1" bus1="UC2831932.1.4" phases=1 conn=delta model=2 kv=0.22 kw = 0.016991626012718874 pf=0.92 status=variable vmaxpu=1.5 vminpu=0.93 daily="RU3_SA" 
New "Load.BT_2831932_M2" bus1="UC2831932.1.4" phases=1 conn=delta model=3 kv=0.22 kw = 0.016991626012718874 pf=0.92 status=variable vmaxpu=1.5 vminpu=0.93 daily="RU3_SA"
 
New "Load.BT_231933_M1" bus1="UC231933.1.2.4" phases=2 conn=delta model=2 kv=0.44 kw = 1.0471792437956358 pf=0.92 status=variable vmaxpu=1.5 vminpu=0.93 daily="RU5_SA" 
New "Load.BT_231933_M2" bus1="UC231933.1.2.4" phases=2 conn=delta model=3 kv=0.44 kw = 1.0471792437956358 pf=0.92 status=variable vmaxpu=1.5 vminpu=0.93 daily="RU5_SA"
 
New "Load.BT_2831495_M1" bus1="UC2831495.1.4" phases=1 conn=delta model=2 kv=0.22 kw = 0.10572567296802857 pf=0.92 status=variable vmaxpu=1.5 vminpu=0.93 daily="RU3_SA" 
New "Load.BT_2831495_M2" bus1="UC2831495.1.4" phases=1 conn=delta model=3 kv=0.22 kw = 0.10572567296802857 pf=0.92 status=variable vmaxpu=1.5 vminpu=0.93 daily="RU3_SA"
 
New "Load.BT_2831490_M1" bus1="UC2831490.1.4" phases=1 conn=delta model=2 kv=0.22 kw = 0.009186522062179394 pf=0.92 status=variable vmaxpu=1.5 vminpu=0.93 daily="RU1_SA" 
New "Load.BT_2831490_M2" bus1="UC2831490.1.4" phases=1 conn=delta model=3 kv=0.22 kw = 0.009186522062179394 pf=0.92 status=variable vmaxpu=1.5 vminpu=0.93 daily="RU1_SA"
 
New "Load.BT_231251_M1" bus1="UC231251.3.4" phases=1 conn=delta model=2 kv=0.22 kw = 0.0 pf=0.92 status=variable vmaxpu=1.5 vminpu=0.93 daily="CO3_SA" 
New "Load.BT_231251_M2" bus1="UC231251.3.4" phases=1 conn=delta model=3 kv=0.22 kw = 0.0 pf=0.92 status=variable vmaxpu=1.5 vminpu=0.93 daily="CO3_SA"
 
New "Load.BT_2831192_M1" bus1="UC2831192.1.4" phases=1 conn=delta model=2 kv=0.22 kw = 0.038528492075771865 pf=0.92 status=variable vmaxpu=1.5 vminpu=0.93 daily="RU7_SA" 
New "Load.BT_2831192_M2" bus1="UC2831192.1.4" phases=1 conn=delta model=3 kv=0.22 kw = 0.038528492075771865 pf=0.92 status=variable vmaxpu=1.5 vminpu=0.93 daily="RU7_SA"
 
New "Load.BT_2831188_M1" bus1="UC2831188.1.4" phases=1 conn=delta model=2 kv=0.22 kw = 0.1314587635928487 pf=0.92 status=variable vmaxpu=1.5 vminpu=0.93 daily="PP3_SA" 
New "Load.BT_2831188_M2" bus1="UC2831188.1.4" phases=1 conn=delta model=3 kv=0.22 kw = 0.1314587635928487 pf=0.92 status=variable vmaxpu=1.5 vminpu=0.93 daily="PP3_SA"
 
New "Load.BT_230656_M1" bus1="UC230656.2.4" phases=1 conn=delta model=2 kv=0.22 kw = 0.07615000799012407 pf=0.92 status=variable vmaxpu=1.5 vminpu=0.93 daily="RU2_SA" 
New "Load.BT_230656_M2" bus1="UC230656.2.4" phases=1 conn=delta model=3 kv=0.22 kw = 0.07615000799012407 pf=0.92 status=variable vmaxpu=1.5 vminpu=0.93 daily="RU2_SA"
 
New "Load.BT_2830653_M1" bus1="UC2830653.2.4" phases=1 conn=delta model=2 kv=0.22 kw = 0.06755872503739212 pf=0.92 status=variable vmaxpu=1.5 vminpu=0.93 daily="RU2_SA" 
New "Load.BT_2830653_M2" bus1="UC2830653.2.4" phases=1 conn=delta model=3 kv=0.22 kw = 0.06755872503739212 pf=0.92 status=variable vmaxpu=1.5 vminpu=0.93 daily="RU2_SA"
 
New "Load.BT_230651_M1" bus1="UC230651.1.4" phases=1 conn=delta model=2 kv=0.22 kw = 0.27795322474318696 pf=0.92 status=variable vmaxpu=1.5 vminpu=0.93 daily="RU4_SA" 
New "Load.BT_230651_M2" bus1="UC230651.1.4" phases=1 conn=delta model=3 kv=0.22 kw = 0.27795322474318696 pf=0.92 status=variable vmaxpu=1.5 vminpu=0.93 daily="RU4_SA"
 
New "Load.BT_230555_M1" bus1="UC230555.1.4" phases=1 conn=delta model=2 kv=0.22 kw = 0.025489160347628503 pf=0.92 status=variable vmaxpu=1.5 vminpu=0.93 daily="RU4_SA" 
New "Load.BT_230555_M2" bus1="UC230555.1.4" phases=1 conn=delta model=3 kv=0.22 kw = 0.025489160347628503 pf=0.92 status=variable vmaxpu=1.5 vminpu=0.93 daily="RU4_SA"
 
New "Load.BT_228394_M1" bus1="UC228394.1.4" phases=1 conn=delta model=2 kv=0.22 kw = 0.3914482072900264 pf=0.92 status=variable vmaxpu=1.5 vminpu=0.93 daily="RU5_SA" 
New "Load.BT_228394_M2" bus1="UC228394.1.4" phases=1 conn=delta model=3 kv=0.22 kw = 0.3914482072900264 pf=0.92 status=variable vmaxpu=1.5 vminpu=0.93 daily="RU5_SA"
 
New "Load.BT_228388_M1" bus1="UC228388.1.4" phases=1 conn=delta model=2 kv=0.22 kw = 0.13485772786125078 pf=0.92 status=variable vmaxpu=1.5 vminpu=0.93 daily="RE1_SA" 
New "Load.BT_228388_M2" bus1="UC228388.1.4" phases=1 conn=delta model=3 kv=0.22 kw = 0.13485772786125078 pf=0.92 status=variable vmaxpu=1.5 vminpu=0.93 daily="RE1_SA"
 
New "Load.BT_227082_M1" bus1="UC227082.2.4" phases=1 conn=delta model=2 kv=0.22 kw = 0.0 pf=0.92 status=variable vmaxpu=1.5 vminpu=0.93 daily="RU7_SA" 
New "Load.BT_227082_M2" bus1="UC227082.2.4" phases=1 conn=delta model=3 kv=0.22 kw = 0.0 pf=0.92 status=variable vmaxpu=1.5 vminpu=0.93 daily="RU7_SA"
 
New "Load.BT_2827937_M1" bus1="UC2827937.1.4" phases=1 conn=delta model=2 kv=0.22 kw = 0.12918376754817626 pf=0.92 status=variable vmaxpu=1.5 vminpu=0.93 daily="RU7_SA" 
New "Load.BT_2827937_M2" bus1="UC2827937.1.4" phases=1 conn=delta model=3 kv=0.22 kw = 0.12918376754817626 pf=0.92 status=variable vmaxpu=1.5 vminpu=0.93 daily="RU7_SA"
 
New "Load.BT_228376_M1" bus1="UC228376.1.4" phases=1 conn=delta model=2 kv=0.22 kw = 0.2524640643955585 pf=0.92 status=variable vmaxpu=1.5 vminpu=0.93 daily="RU4_SA" 
New "Load.BT_228376_M2" bus1="UC228376.1.4" phases=1 conn=delta model=3 kv=0.22 kw = 0.2524640643955585 pf=0.92 status=variable vmaxpu=1.5 vminpu=0.93 daily="RU4_SA"
 
New "Load.BT_226217_M1" bus1="UC226217.1.4" phases=1 conn=delta model=2 kv=0.22 kw = 0.06175007782967151 pf=0.92 status=variable vmaxpu=1.5 vminpu=0.93 daily="RU8_SA" 
New "Load.BT_226217_M2" bus1="UC226217.1.4" phases=1 conn=delta model=3 kv=0.22 kw = 0.06175007782967151 pf=0.92 status=variable vmaxpu=1.5 vminpu=0.93 daily="RU8_SA"
 
New "Load.BT_226224_M1" bus1="UC226224.2.4" phases=1 conn=delta model=2 kv=0.22 kw = 0.11475718669434308 pf=0.92 status=variable vmaxpu=1.5 vminpu=0.93 daily="RE6_SA" 
New "Load.BT_226224_M2" bus1="UC226224.2.4" phases=1 conn=delta model=3 kv=0.22 kw = 0.11475718669434308 pf=0.92 status=variable vmaxpu=1.5 vminpu=0.93 daily="RE6_SA"
 
New "Load.BT_226233_M1" bus1="UC226233.1.2.3.4" phases=3 conn=delta model=2 kv=0.38 kw = 0.5331366097855154 pf=0.92 status=variable vmaxpu=1.5 vminpu=0.93 daily="CO4_SA" 
New "Load.BT_226233_M2" bus1="UC226233.1.2.3.4" phases=3 conn=delta model=3 kv=0.38 kw = 0.5331366097855154 pf=0.92 status=variable vmaxpu=1.5 vminpu=0.93 daily="CO4_SA"
 
New "Load.BT_227077_M1" bus1="UC227077.2.4" phases=1 conn=delta model=2 kv=0.22 kw = 0.19604203320907448 pf=0.92 status=variable vmaxpu=1.5 vminpu=0.93 daily="RU7_SA" 
New "Load.BT_227077_M2" bus1="UC227077.2.4" phases=1 conn=delta model=3 kv=0.22 kw = 0.19604203320907448 pf=0.92 status=variable vmaxpu=1.5 vminpu=0.93 daily="RU7_SA"
 
New "Load.BT_227073_M1" bus1="UC227073.2.4" phases=1 conn=delta model=2 kv=0.22 kw = 0.02643141824200714 pf=0.92 status=variable vmaxpu=1.5 vminpu=0.93 daily="RU3_SA" 
New "Load.BT_227073_M2" bus1="UC227073.2.4" phases=1 conn=delta model=3 kv=0.22 kw = 0.02643141824200714 pf=0.92 status=variable vmaxpu=1.5 vminpu=0.93 daily="RU3_SA"
 
New "Load.BT_2805756_M1" bus1="UC2805756.1.2.3.4" phases=3 conn=delta model=2 kv=0.38 kw = 0.28468387602461775 pf=0.92 status=variable vmaxpu=1.5 vminpu=0.93 daily="RU2_SA" 
New "Load.BT_2805756_M2" bus1="UC2805756.1.2.3.4" phases=3 conn=delta model=3 kv=0.38 kw = 0.28468387602461775 pf=0.92 status=variable vmaxpu=1.5 vminpu=0.93 daily="RU2_SA"
 
New "Load.BT_2805757_M1" bus1="UC2805757.1.2.3.4" phases=3 conn=delta model=2 kv=0.38 kw = 0.21165797092639613 pf=0.92 status=variable vmaxpu=1.5 vminpu=0.93 daily="RU2_SA" 
New "Load.BT_2805757_M2" bus1="UC2805757.1.2.3.4" phases=3 conn=delta model=3 kv=0.38 kw = 0.21165797092639613 pf=0.92 status=variable vmaxpu=1.5 vminpu=0.93 daily="RU2_SA"
 
New "Load.BT_2819390_M1" bus1="UC2819390.1.4" phases=1 conn=delta model=2 kv=0.22 kw = 0.60279837881346 pf=0.92 status=variable vmaxpu=1.5 vminpu=0.93 daily="RU8_SA" 
New "Load.BT_2819390_M2" bus1="UC2819390.1.4" phases=1 conn=delta model=3 kv=0.22 kw = 0.60279837881346 pf=0.92 status=variable vmaxpu=1.5 vminpu=0.93 daily="RU8_SA"
 
New "Load.BT_2819375_M1" bus1="UC2819375.1.4" phases=1 conn=delta model=2 kv=0.22 kw = 0.0 pf=0.92 status=variable vmaxpu=1.5 vminpu=0.93 daily="RU2_SA" 
New "Load.BT_2819375_M2" bus1="UC2819375.1.4" phases=1 conn=delta model=3 kv=0.22 kw = 0.0 pf=0.92 status=variable vmaxpu=1.5 vminpu=0.93 daily="RU2_SA"
 
New "Load.BT_2819355_M1" bus1="UC2819355.1.4" phases=1 conn=delta model=2 kv=0.22 kw = 0.0049032357018994315 pf=0.92 status=variable vmaxpu=1.5 vminpu=0.93 daily="RU1_SA" 
New "Load.BT_2819355_M2" bus1="UC2819355.1.4" phases=1 conn=delta model=3 kv=0.22 kw = 0.0049032357018994315 pf=0.92 status=variable vmaxpu=1.5 vminpu=0.93 daily="RU1_SA"
 
New "Load.BT_2822268_M1" bus1="UC2822268.2.4" phases=1 conn=delta model=2 kv=0.22 kw = 0.3232118205951631 pf=0.92 status=variable vmaxpu=1.5 vminpu=0.93 daily="RU6_SA" 
New "Load.BT_2822268_M2" bus1="UC2822268.2.4" phases=1 conn=delta model=3 kv=0.22 kw = 0.3232118205951631 pf=0.92 status=variable vmaxpu=1.5 vminpu=0.93 daily="RU6_SA"
 
New "Load.BT_2806028_M1" bus1="UC2806028.2.4" phases=1 conn=delta model=2 kv=0.22 kw = 0.2709898233810975 pf=0.92 status=variable vmaxpu=1.5 vminpu=0.93 daily="RU6_SA" 
New "Load.BT_2806028_M2" bus1="UC2806028.2.4" phases=1 conn=delta model=3 kv=0.22 kw = 0.2709898233810975 pf=0.92 status=variable vmaxpu=1.5 vminpu=0.93 daily="RU6_SA"
 
New "Load.BT_2806039_M1" bus1="UC2806039.1.2.3.4" phases=3 conn=delta model=2 kv=0.38 kw = 0.9983412211398534 pf=0.92 status=variable vmaxpu=1.5 vminpu=0.93 daily="RU7_SA" 
New "Load.BT_2806039_M2" bus1="UC2806039.1.2.3.4" phases=3 conn=delta model=3 kv=0.38 kw = 0.9983412211398534 pf=0.92 status=variable vmaxpu=1.5 vminpu=0.93 daily="RU7_SA"
 
New "Load.BT_2805793_M1" bus1="UC2805793.2.4" phases=1 conn=delta model=2 kv=0.22 kw = 0.1820654310544893 pf=0.92 status=variable vmaxpu=1.5 vminpu=0.93 daily="RU4_SA" 
New "Load.BT_2805793_M2" bus1="UC2805793.2.4" phases=1 conn=delta model=3 kv=0.22 kw = 0.1820654310544893 pf=0.92 status=variable vmaxpu=1.5 vminpu=0.93 daily="RU4_SA"
 
New "Load.BT_2805784_M1" bus1="UC2805784.1.4" phases=1 conn=delta model=2 kv=0.22 kw = 0.1481753101041343 pf=0.92 status=variable vmaxpu=1.5 vminpu=0.93 daily="RU5_SA" 
New "Load.BT_2805784_M2" bus1="UC2805784.1.4" phases=1 conn=delta model=3 kv=0.22 kw = 0.1481753101041343 pf=0.92 status=variable vmaxpu=1.5 vminpu=0.93 daily="RU5_SA"
 
New "Load.BT_2805785_M1" bus1="UC2805785.1.4" phases=1 conn=delta model=2 kv=0.22 kw = 0.005076667199341605 pf=0.92 status=variable vmaxpu=1.5 vminpu=0.93 daily="RU2_SA" 
New "Load.BT_2805785_M2" bus1="UC2805785.1.4" phases=1 conn=delta model=3 kv=0.22 kw = 0.005076667199341605 pf=0.92 status=variable vmaxpu=1.5 vminpu=0.93 daily="RU2_SA"
 
New "Load.BT_2805790_M1" bus1="UC2805790.2.4" phases=1 conn=delta model=2 kv=0.22 kw = 0.10283808835585441 pf=0.92 status=variable vmaxpu=1.5 vminpu=0.93 daily="RU5_SA" 
New "Load.BT_2805790_M2" bus1="UC2805790.2.4" phases=1 conn=delta model=3 kv=0.22 kw = 0.10283808835585441 pf=0.92 status=variable vmaxpu=1.5 vminpu=0.93 daily="RU5_SA"
 
New "Load.BT_2805782_M1" bus1="UC2805782.2.4" phases=1 conn=delta model=2 kv=0.22 kw = 0.06910127757129908 pf=0.92 status=variable vmaxpu=1.5 vminpu=0.93 daily="RU8_SA" 
New "Load.BT_2805782_M2" bus1="UC2805782.2.4" phases=1 conn=delta model=3 kv=0.22 kw = 0.06910127757129908 pf=0.92 status=variable vmaxpu=1.5 vminpu=0.93 daily="RU8_SA"
 
New "Load.BT_2805766_M1" bus1="UC2805766.2.4" phases=1 conn=delta model=2 kv=0.22 kw = 0.1820712875841749 pf=0.92 status=variable vmaxpu=1.5 vminpu=0.93 daily="RU6_SA" 
New "Load.BT_2805766_M2" bus1="UC2805766.2.4" phases=1 conn=delta model=3 kv=0.22 kw = 0.1820712875841749 pf=0.92 status=variable vmaxpu=1.5 vminpu=0.93 daily="RU6_SA"
 
New "Load.BT_2817050_M1" bus1="UC2817050.2.4" phases=1 conn=delta model=2 kv=0.22 kw = 0.1359829132086066 pf=0.92 status=variable vmaxpu=1.5 vminpu=0.93 daily="RU7_SA" 
New "Load.BT_2817050_M2" bus1="UC2817050.2.4" phases=1 conn=delta model=3 kv=0.22 kw = 0.1359829132086066 pf=0.92 status=variable vmaxpu=1.5 vminpu=0.93 daily="RU7_SA"
 
New "Load.BT_2818311_M1" bus1="UC2818311.2.4" phases=1 conn=delta model=2 kv=0.22 kw = 0.05662436491573329 pf=0.92 status=variable vmaxpu=1.5 vminpu=0.93 daily="RU2_SA" 
New "Load.BT_2818311_M2" bus1="UC2818311.2.4" phases=1 conn=delta model=3 kv=0.22 kw = 0.05662436491573329 pf=0.92 status=variable vmaxpu=1.5 vminpu=0.93 daily="RU2_SA"
 
New "Load.BT_2825858_M1" bus1="UC2825858.2.4" phases=1 conn=delta model=2 kv=0.22 kw = 0.21969228680575043 pf=0.92 status=variable vmaxpu=1.5 vminpu=0.93 daily="RU4_SA" 
New "Load.BT_2825858_M2" bus1="UC2825858.2.4" phases=1 conn=delta model=3 kv=0.22 kw = 0.21969228680575043 pf=0.92 status=variable vmaxpu=1.5 vminpu=0.93 daily="RU4_SA"
 
New "Load.BT_2817028_M1" bus1="UC2817028.1.4" phases=1 conn=delta model=2 kv=0.22 kw = 0.7498223736460112 pf=0.92 status=variable vmaxpu=1.5 vminpu=0.93 daily="RU8_SA" 
New "Load.BT_2817028_M2" bus1="UC2817028.1.4" phases=1 conn=delta model=3 kv=0.22 kw = 0.7498223736460112 pf=0.92 status=variable vmaxpu=1.5 vminpu=0.93 daily="RU8_SA"
 
New "Load.BT_2817013_M1" bus1="UC2817013.1.4" phases=1 conn=delta model=2 kv=0.22 kw = 0.056638753375729586 pf=0.92 status=variable vmaxpu=1.5 vminpu=0.93 daily="RU3_SA" 
New "Load.BT_2817013_M2" bus1="UC2817013.1.4" phases=1 conn=delta model=3 kv=0.22 kw = 0.056638753375729586 pf=0.92 status=variable vmaxpu=1.5 vminpu=0.93 daily="RU3_SA"
 
New "Load.BT_226211_M1" bus1="UC226211.1.4" phases=1 conn=delta model=2 kv=0.22 kw = 0.06209154497656271 pf=0.92 status=variable vmaxpu=1.5 vminpu=0.93 daily="RU2_SA" 
New "Load.BT_226211_M2" bus1="UC226211.1.4" phases=1 conn=delta model=3 kv=0.22 kw = 0.06209154497656271 pf=0.92 status=variable vmaxpu=1.5 vminpu=0.93 daily="RU2_SA"
 
New "Load.BT_205798_M1" bus1="UC205798.1.4" phases=1 conn=delta model=2 kv=0.22 kw = 0.023221503822289703 pf=0.92 status=variable vmaxpu=1.5 vminpu=0.93 daily="RU5_SA" 
New "Load.BT_205798_M2" bus1="UC205798.1.4" phases=1 conn=delta model=3 kv=0.22 kw = 0.023221503822289703 pf=0.92 status=variable vmaxpu=1.5 vminpu=0.93 daily="RU5_SA"
 
New "Load.BT_221678_M1" bus1="UC221678.1.4" phases=1 conn=delta model=2 kv=0.22 kw = 0.11516546519731684 pf=0.92 status=variable vmaxpu=1.5 vminpu=0.93 daily="RU3_SA" 
New "Load.BT_221678_M2" bus1="UC221678.1.4" phases=1 conn=delta model=3 kv=0.22 kw = 0.11516546519731684 pf=0.92 status=variable vmaxpu=1.5 vminpu=0.93 daily="RU3_SA"
 
New "Load.BT_205762_M1" bus1="UC205762.2.4" phases=1 conn=delta model=2 kv=0.22 kw = 0.4657414777394775 pf=0.92 status=variable vmaxpu=1.5 vminpu=0.93 daily="RU7_SA" 
New "Load.BT_205762_M2" bus1="UC205762.2.4" phases=1 conn=delta model=3 kv=0.22 kw = 0.4657414777394775 pf=0.92 status=variable vmaxpu=1.5 vminpu=0.93 daily="RU7_SA"
 
New "Load.BT_205763_M1" bus1="UC205763.1.2.4" phases=2 conn=delta model=2 kv=0.44 kw = 0.0 pf=0.92 status=variable vmaxpu=1.5 vminpu=0.93 daily="RU5_SA" 
New "Load.BT_205763_M2" bus1="UC205763.1.2.4" phases=2 conn=delta model=3 kv=0.44 kw = 0.0 pf=0.92 status=variable vmaxpu=1.5 vminpu=0.93 daily="RU5_SA"
 
New "Load.BT_205767_M1" bus1="UC205767.1.2.4" phases=2 conn=delta model=2 kv=0.44 kw = 0.061310519253587076 pf=0.92 status=variable vmaxpu=1.5 vminpu=0.93 daily="RU2_SA" 
New "Load.BT_205767_M2" bus1="UC205767.1.2.4" phases=2 conn=delta model=3 kv=0.44 kw = 0.061310519253587076 pf=0.92 status=variable vmaxpu=1.5 vminpu=0.93 daily="RU2_SA"
 
New "Load.BT_221287_M1" bus1="UC221287.1.2.3.4" phases=3 conn=delta model=2 kv=0.38 kw = 0.09528513820302704 pf=0.92 status=variable vmaxpu=1.5 vminpu=0.93 daily="RU2_SA" 
New "Load.BT_221287_M2" bus1="UC221287.1.2.3.4" phases=3 conn=delta model=3 kv=0.38 kw = 0.09528513820302704 pf=0.92 status=variable vmaxpu=1.5 vminpu=0.93 daily="RU2_SA"
 
New "Load.BT_205749_M1" bus1="UC205749.1.2.4" phases=2 conn=delta model=2 kv=0.44 kw = 0.22053599224882683 pf=0.92 status=variable vmaxpu=1.5 vminpu=0.93 daily="RU8_SA" 
New "Load.BT_205749_M2" bus1="UC205749.1.2.4" phases=2 conn=delta model=3 kv=0.44 kw = 0.22053599224882683 pf=0.92 status=variable vmaxpu=1.5 vminpu=0.93 daily="RU8_SA"
 
New "Load.BT_205751_M1" bus1="UC205751.2.4" phases=1 conn=delta model=2 kv=0.22 kw = 0.1177356454152364 pf=0.92 status=variable vmaxpu=1.5 vminpu=0.93 daily="RU4_SA" 
New "Load.BT_205751_M2" bus1="UC205751.2.4" phases=1 conn=delta model=3 kv=0.22 kw = 0.1177356454152364 pf=0.92 status=variable vmaxpu=1.5 vminpu=0.93 daily="RU4_SA"
 
New "Load.BT_205752_M1" bus1="UC205752.1.2.3.4" phases=3 conn=delta model=2 kv=0.38 kw = 0.011835396521826214 pf=0.92 status=variable vmaxpu=1.5 vminpu=0.93 daily="RU1_SA" 
New "Load.BT_205752_M2" bus1="UC205752.1.2.3.4" phases=3 conn=delta model=3 kv=0.38 kw = 0.011835396521826214 pf=0.92 status=variable vmaxpu=1.5 vminpu=0.93 daily="RU1_SA"
 
New "Load.BT_205753_M1" bus1="UC205753.2.4" phases=1 conn=delta model=2 kv=0.22 kw = 0.025528702390583094 pf=0.92 status=variable vmaxpu=1.5 vminpu=0.93 daily="CO6_SA" 
New "Load.BT_205753_M2" bus1="UC205753.2.4" phases=1 conn=delta model=3 kv=0.22 kw = 0.025528702390583094 pf=0.92 status=variable vmaxpu=1.5 vminpu=0.93 daily="CO6_SA"
 
New "Load.BT_205754_M1" bus1="UC205754.1.2.3.4" phases=3 conn=delta model=2 kv=0.38 kw = 0.3146313489416596 pf=0.92 status=variable vmaxpu=1.5 vminpu=0.93 daily="RU8_SA" 
New "Load.BT_205754_M2" bus1="UC205754.1.2.3.4" phases=3 conn=delta model=3 kv=0.38 kw = 0.3146313489416596 pf=0.92 status=variable vmaxpu=1.5 vminpu=0.93 daily="RU8_SA"
 
New "Load.BT_205755_M1" bus1="UC205755.1.4" phases=1 conn=delta model=2 kv=0.22 kw = 0.21239532515898596 pf=0.92 status=variable vmaxpu=1.5 vminpu=0.93 daily="RU3_SA" 
New "Load.BT_205755_M2" bus1="UC205755.1.4" phases=1 conn=delta model=3 kv=0.22 kw = 0.21239532515898596 pf=0.92 status=variable vmaxpu=1.5 vminpu=0.93 daily="RU3_SA"
 
New "Load.BT_205747_M1" bus1="UC205747.1.4" phases=1 conn=delta model=2 kv=0.22 kw = 0.007213955975208359 pf=0.92 status=variable vmaxpu=1.5 vminpu=0.93 daily="RU1_SA" 
New "Load.BT_205747_M2" bus1="UC205747.1.4" phases=1 conn=delta model=3 kv=0.22 kw = 0.007213955975208359 pf=0.92 status=variable vmaxpu=1.5 vminpu=0.93 daily="RU1_SA"
 
New "Load.BT_205746_M1" bus1="UC205746.1.4" phases=1 conn=delta model=2 kv=0.22 kw = 0.014702399483255121 pf=0.92 status=variable vmaxpu=1.5 vminpu=0.93 daily="RU8_SA" 
New "Load.BT_205746_M2" bus1="UC205746.1.4" phases=1 conn=delta model=3 kv=0.22 kw = 0.014702399483255121 pf=0.92 status=variable vmaxpu=1.5 vminpu=0.93 daily="RU8_SA"
 
New "Load.BT_220652_M1" bus1="UC220652.1.4" phases=1 conn=delta model=2 kv=0.22 kw = 0.20788774850430783 pf=0.92 status=variable vmaxpu=1.5 vminpu=0.93 daily="RU5_SA" 
New "Load.BT_220652_M2" bus1="UC220652.1.4" phases=1 conn=delta model=3 kv=0.22 kw = 0.20788774850430783 pf=0.92 status=variable vmaxpu=1.5 vminpu=0.93 daily="RU5_SA"
 
New "Load.BT_221021_M1" bus1="UC221021.1.4" phases=1 conn=delta model=2 kv=0.22 kw = 0.04608051765556226 pf=0.92 status=variable vmaxpu=1.5 vminpu=0.93 daily="RU2_SA" 
New "Load.BT_221021_M2" bus1="UC221021.1.4" phases=1 conn=delta model=3 kv=0.22 kw = 0.04608051765556226 pf=0.92 status=variable vmaxpu=1.5 vminpu=0.93 daily="RU2_SA"
 
New "Load.BT_205739_M1" bus1="UC205739.1.4" phases=1 conn=delta model=2 kv=0.22 kw = 0.46589609861911013 pf=0.92 status=variable vmaxpu=1.5 vminpu=0.93 daily="RE5_SA" 
New "Load.BT_205739_M2" bus1="UC205739.1.4" phases=1 conn=delta model=3 kv=0.22 kw = 0.46589609861911013 pf=0.92 status=variable vmaxpu=1.5 vminpu=0.93 daily="RE5_SA"
 
New "Load.BT_205744_M1" bus1="UC205744.1.2.3.4" phases=3 conn=delta model=2 kv=0.38 kw = 0.08293394222246323 pf=0.92 status=variable vmaxpu=1.5 vminpu=0.93 daily="RU5_SA" 
New "Load.BT_205744_M2" bus1="UC205744.1.2.3.4" phases=3 conn=delta model=3 kv=0.38 kw = 0.08293394222246323 pf=0.92 status=variable vmaxpu=1.5 vminpu=0.93 daily="RU5_SA"
 
New "Load.BT_205745_M1" bus1="UC205745.1.2.3.4" phases=3 conn=delta model=2 kv=0.38 kw = 0.17677778717118856 pf=0.92 status=variable vmaxpu=1.5 vminpu=0.93 daily="RU7_SA" 
New "Load.BT_205745_M2" bus1="UC205745.1.2.3.4" phases=3 conn=delta model=3 kv=0.38 kw = 0.17677778717118856 pf=0.92 status=variable vmaxpu=1.5 vminpu=0.93 daily="RU7_SA"
 
New "Load.BT_205737_M1" bus1="UC205737.2.4" phases=1 conn=delta model=2 kv=0.22 kw = 0.2868929667358577 pf=0.92 status=variable vmaxpu=1.5 vminpu=0.93 daily="RE6_SA" 
New "Load.BT_205737_M2" bus1="UC205737.2.4" phases=1 conn=delta model=3 kv=0.22 kw = 0.2868929667358577 pf=0.92 status=variable vmaxpu=1.5 vminpu=0.93 daily="RE6_SA"
 
New "Load.BT_225866_M1" bus1="UC225866.1.2.3.4" phases=3 conn=delta model=2 kv=0.38 kw = 0.1567005510061852 pf=0.92 status=variable vmaxpu=1.5 vminpu=0.93 daily="RU3_SA" 
New "Load.BT_225866_M2" bus1="UC225866.1.2.3.4" phases=3 conn=delta model=3 kv=0.38 kw = 0.1567005510061852 pf=0.92 status=variable vmaxpu=1.5 vminpu=0.93 daily="RU3_SA"
 
New "Load.BT_228021_M1" bus1="UC228021.2.4" phases=1 conn=delta model=2 kv=0.22 kw = 0.33864170176135006 pf=0.92 status=variable vmaxpu=1.5 vminpu=0.93 daily="RU4_SA" 
New "Load.BT_228021_M2" bus1="UC228021.2.4" phases=1 conn=delta model=3 kv=0.22 kw = 0.33864170176135006 pf=0.92 status=variable vmaxpu=1.5 vminpu=0.93 daily="RU4_SA"
 
New "Load.BT_223629_M1" bus1="UC223629.1.4" phases=1 conn=delta model=2 kv=0.22 kw = 0.035836319291800894 pf=0.92 status=variable vmaxpu=1.5 vminpu=0.93 daily="RE1_SA" 
New "Load.BT_223629_M2" bus1="UC223629.1.4" phases=1 conn=delta model=3 kv=0.22 kw = 0.035836319291800894 pf=0.92 status=variable vmaxpu=1.5 vminpu=0.93 daily="RE1_SA"
 
New "Load.BT_217024_M1" bus1="UC217024.1.4" phases=1 conn=delta model=2 kv=0.22 kw = 0.15638035018989757 pf=0.92 status=variable vmaxpu=1.5 vminpu=0.93 daily="RU7_SA" 
New "Load.BT_217024_M2" bus1="UC217024.1.4" phases=1 conn=delta model=3 kv=0.22 kw = 0.15638035018989757 pf=0.92 status=variable vmaxpu=1.5 vminpu=0.93 daily="RU7_SA"
 
New "Load.BT_223627_M1" bus1="UC223627.2.4" phases=1 conn=delta model=2 kv=0.22 kw = 0.02646431906985922 pf=0.92 status=variable vmaxpu=1.5 vminpu=0.93 daily="RU8_SA" 
New "Load.BT_223627_M2" bus1="UC223627.2.4" phases=1 conn=delta model=3 kv=0.22 kw = 0.02646431906985922 pf=0.92 status=variable vmaxpu=1.5 vminpu=0.93 daily="RU8_SA"
 
New "Load.BT_205672_M1" bus1="UC205672.1.4" phases=1 conn=delta model=2 kv=0.22 kw = 0.09879837310769182 pf=0.92 status=variable vmaxpu=1.5 vminpu=0.93 daily="RU6_SA" 
New "Load.BT_205672_M2" bus1="UC205672.1.4" phases=1 conn=delta model=3 kv=0.22 kw = 0.09879837310769182 pf=0.92 status=variable vmaxpu=1.5 vminpu=0.93 daily="RU6_SA"
 
New "Load.BT_205673_M1" bus1="UC205673.2.4" phases=1 conn=delta model=2 kv=0.22 kw = 0.2488227557744687 pf=0.92 status=variable vmaxpu=1.5 vminpu=0.93 daily="RU4_SA" 
New "Load.BT_205673_M2" bus1="UC205673.2.4" phases=1 conn=delta model=3 kv=0.22 kw = 0.2488227557744687 pf=0.92 status=variable vmaxpu=1.5 vminpu=0.93 daily="RU4_SA"
 
New "Load.BT_205666_M1" bus1="UC205666.1.2.3.4" phases=3 conn=delta model=2 kv=0.38 kw = 0.4526044064643785 pf=0.92 status=variable vmaxpu=1.5 vminpu=0.93 daily="RU2_SA" 
New "Load.BT_205666_M2" bus1="UC205666.1.2.3.4" phases=3 conn=delta model=3 kv=0.38 kw = 0.4526044064643785 pf=0.92 status=variable vmaxpu=1.5 vminpu=0.93 daily="RU2_SA"
 
New "Load.BT_205668_M1" bus1="UC205668.1.4" phases=1 conn=delta model=2 kv=0.22 kw = 0.01972566086971035 pf=0.92 status=variable vmaxpu=1.5 vminpu=0.93 daily="RU1_SA" 
New "Load.BT_205668_M2" bus1="UC205668.1.4" phases=1 conn=delta model=3 kv=0.22 kw = 0.01972566086971035 pf=0.92 status=variable vmaxpu=1.5 vminpu=0.93 daily="RU1_SA"
 
New "Load.BT_205669_M1" bus1="UC205669.2.4" phases=1 conn=delta model=2 kv=0.22 kw = 0.031151314356651274 pf=0.92 status=variable vmaxpu=1.5 vminpu=0.93 daily="RU3_SA" 
New "Load.BT_205669_M2" bus1="UC205669.2.4" phases=1 conn=delta model=3 kv=0.22 kw = 0.031151314356651274 pf=0.92 status=variable vmaxpu=1.5 vminpu=0.93 daily="RU3_SA"
 
New "Load.BT_205670_M1" bus1="UC205670.2.4" phases=1 conn=delta model=2 kv=0.22 kw = 0.09103271552724465 pf=0.92 status=variable vmaxpu=1.5 vminpu=0.93 daily="RU4_SA" 
New "Load.BT_205670_M2" bus1="UC205670.2.4" phases=1 conn=delta model=3 kv=0.22 kw = 0.09103271552724465 pf=0.92 status=variable vmaxpu=1.5 vminpu=0.93 daily="RU4_SA"
 
New "Load.BT_205671_M1" bus1="UC205671.2.4" phases=1 conn=delta model=2 kv=0.22 kw = 0.2661134306469177 pf=0.92 status=variable vmaxpu=1.5 vminpu=0.93 daily="RU8_SA" 
New "Load.BT_205671_M2" bus1="UC205671.2.4" phases=1 conn=delta model=3 kv=0.22 kw = 0.2661134306469177 pf=0.92 status=variable vmaxpu=1.5 vminpu=0.93 daily="RU8_SA"
 
New "Load.BT_206078_M1" bus1="UC206078.1.4" phases=1 conn=delta model=2 kv=0.22 kw = 0.004396004422392593 pf=0.92 status=variable vmaxpu=1.5 vminpu=0.93 daily="RU1_SA" 
New "Load.BT_206078_M2" bus1="UC206078.1.4" phases=1 conn=delta model=3 kv=0.22 kw = 0.004396004422392593 pf=0.92 status=variable vmaxpu=1.5 vminpu=0.93 daily="RU1_SA"
 
New "Load.BT_206080_M1" bus1="UC206080.2.4" phases=1 conn=delta model=2 kv=0.22 kw = 0.4915766638471211 pf=0.92 status=variable vmaxpu=1.5 vminpu=0.93 daily="RU4_SA" 
New "Load.BT_206080_M2" bus1="UC206080.2.4" phases=1 conn=delta model=3 kv=0.22 kw = 0.4915766638471211 pf=0.92 status=variable vmaxpu=1.5 vminpu=0.93 daily="RU4_SA"
 
New "Load.BT_205662_M1" bus1="UC205662.1.4" phases=1 conn=delta model=2 kv=0.22 kw = 0.36273116983823983 pf=0.92 status=variable vmaxpu=1.5 vminpu=0.93 daily="RU6_SA" 
New "Load.BT_205662_M2" bus1="UC205662.1.4" phases=1 conn=delta model=3 kv=0.22 kw = 0.36273116983823983 pf=0.92 status=variable vmaxpu=1.5 vminpu=0.93 daily="RU6_SA"
 
New "Load.BT_205664_M1" bus1="UC205664.1.2.4" phases=2 conn=delta model=2 kv=0.44 kw = 0.06135864949037372 pf=0.92 status=variable vmaxpu=1.5 vminpu=0.93 daily="RU3_SA" 
New "Load.BT_205664_M2" bus1="UC205664.1.2.4" phases=2 conn=delta model=3 kv=0.44 kw = 0.06135864949037372 pf=0.92 status=variable vmaxpu=1.5 vminpu=0.93 daily="RU3_SA"
 
New "Load.BT_205655_M1" bus1="UC205655.1.4" phases=1 conn=delta model=2 kv=0.22 kw = 0.1260595921781441 pf=0.92 status=variable vmaxpu=1.5 vminpu=0.93 daily="RU5_SA" 
New "Load.BT_205655_M2" bus1="UC205655.1.4" phases=1 conn=delta model=3 kv=0.22 kw = 0.1260595921781441 pf=0.92 status=variable vmaxpu=1.5 vminpu=0.93 daily="RU5_SA"
 
New "Load.BT_205658_M1" bus1="UC205658.1.4" phases=1 conn=delta model=2 kv=0.22 kw = 0.2403263689919259 pf=0.92 status=variable vmaxpu=1.5 vminpu=0.93 daily="RU4_SA" 
New "Load.BT_205658_M2" bus1="UC205658.1.4" phases=1 conn=delta model=3 kv=0.22 kw = 0.2403263689919259 pf=0.92 status=variable vmaxpu=1.5 vminpu=0.93 daily="RU4_SA"
 
New "Load.BT_205659_M1" bus1="UC205659.1.2.3.4" phases=3 conn=delta model=2 kv=0.38 kw = 0.2187058520771756 pf=0.92 status=variable vmaxpu=1.5 vminpu=0.93 daily="RU7_SA" 
New "Load.BT_205659_M2" bus1="UC205659.1.2.3.4" phases=3 conn=delta model=3 kv=0.38 kw = 0.2187058520771756 pf=0.92 status=variable vmaxpu=1.5 vminpu=0.93 daily="RU7_SA"
 
New "Load.BT_206061_M1" bus1="UC206061.1.4" phases=1 conn=delta model=2 kv=0.22 kw = 0.050978320695257005 pf=0.92 status=variable vmaxpu=1.5 vminpu=0.93 daily="RU4_SA" 
New "Load.BT_206061_M2" bus1="UC206061.1.4" phases=1 conn=delta model=3 kv=0.22 kw = 0.050978320695257005 pf=0.92 status=variable vmaxpu=1.5 vminpu=0.93 daily="RU4_SA"
 
New "Load.BT_205649_M1" bus1="UC205649.1.2.3.4" phases=3 conn=delta model=2 kv=0.38 kw = 0.5446760116299328 pf=0.92 status=variable vmaxpu=1.5 vminpu=0.93 daily="RU3_SA" 
New "Load.BT_205649_M2" bus1="UC205649.1.2.3.4" phases=3 conn=delta model=3 kv=0.38 kw = 0.5446760116299328 pf=0.92 status=variable vmaxpu=1.5 vminpu=0.93 daily="RU3_SA"
 
New "Load.BT_205650_M1" bus1="UC205650.1.4" phases=1 conn=delta model=2 kv=0.22 kw = 0.16936863961318596 pf=0.92 status=variable vmaxpu=1.5 vminpu=0.93 daily="RU6_SA" 
New "Load.BT_205650_M2" bus1="UC205650.1.4" phases=1 conn=delta model=3 kv=0.22 kw = 0.16936863961318596 pf=0.92 status=variable vmaxpu=1.5 vminpu=0.93 daily="RU6_SA"
 
New "Load.BT_205651_M1" bus1="UC205651.1.2.3.4" phases=3 conn=delta model=2 kv=0.38 kw = 0.6459188377408812 pf=0.92 status=variable vmaxpu=1.5 vminpu=0.93 daily="RU7_SA" 
New "Load.BT_205651_M2" bus1="UC205651.1.2.3.4" phases=3 conn=delta model=3 kv=0.38 kw = 0.6459188377408812 pf=0.92 status=variable vmaxpu=1.5 vminpu=0.93 daily="RU7_SA"
 
New "Load.BT_205653_M1" bus1="UC205653.1.2.3.4" phases=3 conn=delta model=2 kv=0.38 kw = 0.04998815824306742 pf=0.92 status=variable vmaxpu=1.5 vminpu=0.93 daily="RU8_SA" 
New "Load.BT_205653_M2" bus1="UC205653.1.2.3.4" phases=3 conn=delta model=3 kv=0.38 kw = 0.04998815824306742 pf=0.92 status=variable vmaxpu=1.5 vminpu=0.93 daily="RU8_SA"
 
New "Load.BT_205654_M1" bus1="UC205654.1.4" phases=1 conn=delta model=2 kv=0.22 kw = 0.031673775453649196 pf=0.92 status=variable vmaxpu=1.5 vminpu=0.93 daily="RU1_SA" 
New "Load.BT_205654_M2" bus1="UC205654.1.4" phases=1 conn=delta model=3 kv=0.22 kw = 0.031673775453649196 pf=0.92 status=variable vmaxpu=1.5 vminpu=0.93 daily="RU1_SA"
 
New "Load.BT_205648_M1" bus1="UC205648.1.4" phases=1 conn=delta model=2 kv=0.22 kw = 0.2199471589424166 pf=0.92 status=variable vmaxpu=1.5 vminpu=0.93 daily="RU3_SA" 
New "Load.BT_205648_M2" bus1="UC205648.1.4" phases=1 conn=delta model=3 kv=0.22 kw = 0.2199471589424166 pf=0.92 status=variable vmaxpu=1.5 vminpu=0.93 daily="RU3_SA"
 
New "Load.BT_205645_M1" bus1="UC205645.2.4" phases=1 conn=delta model=2 kv=0.22 kw = 0.033815518811486776 pf=0.92 status=variable vmaxpu=1.5 vminpu=0.93 daily="RU8_SA" 
New "Load.BT_205645_M2" bus1="UC205645.2.4" phases=1 conn=delta model=3 kv=0.22 kw = 0.033815518811486776 pf=0.92 status=variable vmaxpu=1.5 vminpu=0.93 daily="RU8_SA"
 
New "Load.BT_222266_M1" bus1="UC222266.2.4" phases=1 conn=delta model=2 kv=0.22 kw = 0.04529949193258663 pf=0.92 status=variable vmaxpu=1.5 vminpu=0.93 daily="RU2_SA" 
New "Load.BT_222266_M2" bus1="UC222266.2.4" phases=1 conn=delta model=3 kv=0.22 kw = 0.04529949193258663 pf=0.92 status=variable vmaxpu=1.5 vminpu=0.93 daily="RU2_SA"
 
New "Load.BT_205731_M1" bus1="UC205731.1.4" phases=1 conn=delta model=2 kv=0.22 kw = 0.020970577692017246 pf=0.92 status=variable vmaxpu=1.5 vminpu=0.93 daily="CO4_SA" 
New "Load.BT_205731_M2" bus1="UC205731.1.4" phases=1 conn=delta model=3 kv=0.22 kw = 0.020970577692017246 pf=0.92 status=variable vmaxpu=1.5 vminpu=0.93 daily="CO4_SA"
 
New "Load.BT_205734_M1" bus1="UC205734.1.2.4" phases=2 conn=delta model=2 kv=0.44 kw = 0.4430776588713764 pf=0.92 status=variable vmaxpu=1.5 vminpu=0.93 daily="RU7_SA" 
New "Load.BT_205734_M2" bus1="UC205734.1.2.4" phases=2 conn=delta model=3 kv=0.44 kw = 0.4430776588713764 pf=0.92 status=variable vmaxpu=1.5 vminpu=0.93 daily="RU7_SA"
 
New "Load.BT_219392_M1" bus1="UC219392.1.4" phases=1 conn=delta model=2 kv=0.22 kw = 0.026816701272087774 pf=0.92 status=variable vmaxpu=1.5 vminpu=0.93 daily="RU6_SA" 
New "Load.BT_219392_M2" bus1="UC219392.1.4" phases=1 conn=delta model=3 kv=0.22 kw = 0.026816701272087774 pf=0.92 status=variable vmaxpu=1.5 vminpu=0.93 daily="RU6_SA"
 
New "Load.BT_219394_M1" bus1="UC219394.1.4" phases=1 conn=delta model=2 kv=0.22 kw = 0.0839602652198804 pf=0.92 status=variable vmaxpu=1.5 vminpu=0.93 daily="RU2_SA" 
New "Load.BT_219394_M2" bus1="UC219394.1.4" phases=1 conn=delta model=3 kv=0.22 kw = 0.0839602652198804 pf=0.92 status=variable vmaxpu=1.5 vminpu=0.93 daily="RU2_SA"
 
New "Load.BT_219377_M1" bus1="UC219377.1.2.4" phases=2 conn=delta model=2 kv=0.44 kw = 2.5355744872270396 pf=0.92 status=variable vmaxpu=1.5 vminpu=0.93 daily="PP7_SA" 
New "Load.BT_219377_M2" bus1="UC219377.1.2.4" phases=2 conn=delta model=3 kv=0.44 kw = 2.5355744872270396 pf=0.92 status=variable vmaxpu=1.5 vminpu=0.93 daily="PP7_SA"
 
New "Load.BT_219381_M1" bus1="UC219381.1.4" phases=1 conn=delta model=2 kv=0.22 kw = 0.0679665040508755 pf=0.92 status=variable vmaxpu=1.5 vminpu=0.93 daily="RU3_SA" 
New "Load.BT_219381_M2" bus1="UC219381.1.4" phases=1 conn=delta model=3 kv=0.22 kw = 0.0679665040508755 pf=0.92 status=variable vmaxpu=1.5 vminpu=0.93 daily="RU3_SA"
 
New "Load.BT_219384_M1" bus1="UC219384.1.4" phases=1 conn=delta model=2 kv=0.22 kw = 0.10194975607631326 pf=0.92 status=variable vmaxpu=1.5 vminpu=0.93 daily="RU3_SA" 
New "Load.BT_219384_M2" bus1="UC219384.1.4" phases=1 conn=delta model=3 kv=0.22 kw = 0.10194975607631326 pf=0.92 status=variable vmaxpu=1.5 vminpu=0.93 daily="RU3_SA"
 
New "Load.BT_225587_M1" bus1="UC225587.1.4" phases=1 conn=delta model=2 kv=0.22 kw = 0.16708432245840232 pf=0.92 status=variable vmaxpu=1.5 vminpu=0.93 daily="RU3_SA" 
New "Load.BT_225587_M2" bus1="UC225587.1.4" phases=1 conn=delta model=3 kv=0.22 kw = 0.16708432245840232 pf=0.92 status=variable vmaxpu=1.5 vminpu=0.93 daily="RU3_SA"
 
New "Load.BT_205729_M1" bus1="UC205729.1.2.4" phases=2 conn=delta model=2 kv=0.44 kw = 0.16936863961318596 pf=0.92 status=variable vmaxpu=1.5 vminpu=0.93 daily="RU6_SA" 
New "Load.BT_205729_M2" bus1="UC205729.1.2.4" phases=2 conn=delta model=3 kv=0.44 kw = 0.16936863961318596 pf=0.92 status=variable vmaxpu=1.5 vminpu=0.93 daily="RU6_SA"
 
New "Load.BT_205730_M1" bus1="UC205730.2.4" phases=1 conn=delta model=2 kv=0.22 kw = 0.1955419131272931 pf=0.92 status=variable vmaxpu=1.5 vminpu=0.93 daily="RU8_SA" 
New "Load.BT_205730_M2" bus1="UC205730.2.4" phases=1 conn=delta model=3 kv=0.22 kw = 0.1955419131272931 pf=0.92 status=variable vmaxpu=1.5 vminpu=0.93 daily="RU8_SA"
 
New "Load.BT_205717_M1" bus1="UC205717.1.2.3.4" phases=3 conn=delta model=2 kv=0.38 kw = 0.06607854560501786 pf=0.92 status=variable vmaxpu=1.5 vminpu=0.93 daily="RU3_SA" 
New "Load.BT_205717_M2" bus1="UC205717.1.2.3.4" phases=3 conn=delta model=3 kv=0.38 kw = 0.06607854560501786 pf=0.92 status=variable vmaxpu=1.5 vminpu=0.93 daily="RU3_SA"
 
New "Load.BT_205719_M1" bus1="UC205719.2.4" phases=1 conn=delta model=2 kv=0.22 kw = 0.0 pf=0.92 status=variable vmaxpu=1.5 vminpu=0.93 daily="RE6_SA" 
New "Load.BT_205719_M2" bus1="UC205719.2.4" phases=1 conn=delta model=3 kv=0.22 kw = 0.0 pf=0.92 status=variable vmaxpu=1.5 vminpu=0.93 daily="RE6_SA"
 
New "Load.BT_205722_M1" bus1="UC205722.1.2.3.4" phases=3 conn=delta model=2 kv=0.38 kw = 0.08779006773238086 pf=0.92 status=variable vmaxpu=1.5 vminpu=0.93 daily="RU3_SA" 
New "Load.BT_205722_M2" bus1="UC205722.1.2.3.4" phases=3 conn=delta model=3 kv=0.38 kw = 0.08779006773238086 pf=0.92 status=variable vmaxpu=1.5 vminpu=0.93 daily="RU3_SA"
 
New "Load.BT_205727_M1" bus1="UC205727.1.4" phases=1 conn=delta model=2 kv=0.22 kw = 0.08846287170396078 pf=0.92 status=variable vmaxpu=1.5 vminpu=0.93 daily="RU5_SA" 
New "Load.BT_205727_M2" bus1="UC205727.1.4" phases=1 conn=delta model=3 kv=0.22 kw = 0.08846287170396078 pf=0.92 status=variable vmaxpu=1.5 vminpu=0.93 daily="RU5_SA"
 
New "Load.BT_205710_M1" bus1="UC205710.1.2.3.4" phases=3 conn=delta model=2 kv=0.38 kw = 0.2860257045474344 pf=0.92 status=variable vmaxpu=1.5 vminpu=0.93 daily="RU3_SA" 
New "Load.BT_205710_M2" bus1="UC205710.1.2.3.4" phases=3 conn=delta model=3 kv=0.38 kw = 0.2860257045474344 pf=0.92 status=variable vmaxpu=1.5 vminpu=0.93 daily="RU3_SA"
 
New "Load.BT_205711_M1" bus1="UC205711.2.4" phases=1 conn=delta model=2 kv=0.22 kw = 0.14264638062263674 pf=0.92 status=variable vmaxpu=1.5 vminpu=0.93 daily="RU5_SA" 
New "Load.BT_205711_M2" bus1="UC205711.2.4" phases=1 conn=delta model=3 kv=0.22 kw = 0.14264638062263674 pf=0.92 status=variable vmaxpu=1.5 vminpu=0.93 daily="RU5_SA"
 
New "Load.BT_205713_M1" bus1="UC205713.2.4" phases=1 conn=delta model=2 kv=0.22 kw = 0.20861940826727068 pf=0.92 status=variable vmaxpu=1.5 vminpu=0.93 daily="RU3_SA" 
New "Load.BT_205713_M2" bus1="UC205713.2.4" phases=1 conn=delta model=3 kv=0.22 kw = 0.20861940826727068 pf=0.92 status=variable vmaxpu=1.5 vminpu=0.93 daily="RU3_SA"
 
New "Load.BT_219351_M1" bus1="UC219351.2.4" phases=1 conn=delta model=2 kv=0.22 kw = 0.165445877737138 pf=0.92 status=variable vmaxpu=1.5 vminpu=0.93 daily="RU7_SA" 
New "Load.BT_219351_M2" bus1="UC219351.2.4" phases=1 conn=delta model=3 kv=0.22 kw = 0.165445877737138 pf=0.92 status=variable vmaxpu=1.5 vminpu=0.93 daily="RU7_SA"
 
New "Load.BT_219353_M1" bus1="UC219353.2.4" phases=1 conn=delta model=2 kv=0.22 kw = 0.009355599155348341 pf=0.92 status=variable vmaxpu=1.5 vminpu=0.93 daily="RU1_SA" 
New "Load.BT_219353_M2" bus1="UC219353.2.4" phases=1 conn=delta model=3 kv=0.22 kw = 0.009355599155348341 pf=0.92 status=variable vmaxpu=1.5 vminpu=0.93 daily="RU1_SA"
 
New "Load.BT_219354_M1" bus1="UC219354.1.4" phases=1 conn=delta model=2 kv=0.22 kw = 0.13690631702065864 pf=0.92 status=variable vmaxpu=1.5 vminpu=0.93 daily="RU6_SA" 
New "Load.BT_219354_M2" bus1="UC219354.1.4" phases=1 conn=delta model=3 kv=0.22 kw = 0.13690631702065864 pf=0.92 status=variable vmaxpu=1.5 vminpu=0.93 daily="RU6_SA"
 
New "Load.BT_219361_M1" bus1="UC219361.1.2.3.4" phases=3 conn=delta model=2 kv=0.38 kw = 0.12646966569037152 pf=0.92 status=variable vmaxpu=1.5 vminpu=0.93 daily="RU1_SA" 
New "Load.BT_219361_M2" bus1="UC219361.1.2.3.4" phases=3 conn=delta model=3 kv=0.38 kw = 0.12646966569037152 pf=0.92 status=variable vmaxpu=1.5 vminpu=0.93 daily="RU1_SA"
 
New "Load.BT_219363_M1" bus1="UC219363.2.4" phases=1 conn=delta model=2 kv=0.22 kw = 0.04754879354087891 pf=0.92 status=variable vmaxpu=1.5 vminpu=0.93 daily="RU5_SA" 
New "Load.BT_219363_M2" bus1="UC219363.2.4" phases=1 conn=delta model=3 kv=0.22 kw = 0.04754879354087891 pf=0.92 status=variable vmaxpu=1.5 vminpu=0.93 daily="RU5_SA"
 
New "Load.BT_205709_M1" bus1="UC205709.1.4" phases=1 conn=delta model=2 kv=0.22 kw = 0.046254981923512496 pf=0.92 status=variable vmaxpu=1.5 vminpu=0.93 daily="RU3_SA" 
New "Load.BT_205709_M2" bus1="UC205709.1.4" phases=1 conn=delta model=3 kv=0.22 kw = 0.046254981923512496 pf=0.92 status=variable vmaxpu=1.5 vminpu=0.93 daily="RU3_SA"
 
New "Load.BT_225590_M1" bus1="UC225590.2.4" phases=1 conn=delta model=2 kv=0.22 kw = 0.07646231705723494 pf=0.92 status=variable vmaxpu=1.5 vminpu=0.93 daily="RU3_SA" 
New "Load.BT_225590_M2" bus1="UC225590.2.4" phases=1 conn=delta model=3 kv=0.22 kw = 0.07646231705723494 pf=0.92 status=variable vmaxpu=1.5 vminpu=0.93 daily="RU3_SA"
 
New "Load.BT_225591_M1" bus1="UC225591.1.4" phases=1 conn=delta model=2 kv=0.22 kw = 0.03870314814008188 pf=0.92 status=variable vmaxpu=1.5 vminpu=0.93 daily="RU3_SA" 
New "Load.BT_225591_M2" bus1="UC225591.1.4" phases=1 conn=delta model=3 kv=0.22 kw = 0.03870314814008188 pf=0.92 status=variable vmaxpu=1.5 vminpu=0.93 daily="RU3_SA"
 
New "Load.BT_225591_M1" bus1="UC225591.1.4" phases=1 conn=delta model=2 kv=0.22 kw = 0.1335146494399588 pf=0.92 status=variable vmaxpu=1.5 vminpu=0.93 daily="RU4_SA" 
New "Load.BT_225591_M2" bus1="UC225591.1.4" phases=1 conn=delta model=3 kv=0.22 kw = 0.1335146494399588 pf=0.92 status=variable vmaxpu=1.5 vminpu=0.93 daily="RU4_SA"
 
New "Load.BT_225593_M1" bus1="UC225593.2.4" phases=1 conn=delta model=2 kv=0.22 kw = 0.115001733215149 pf=0.92 status=variable vmaxpu=1.5 vminpu=0.93 daily="RU5_SA" 
New "Load.BT_225593_M2" bus1="UC225593.2.4" phases=1 conn=delta model=3 kv=0.22 kw = 0.115001733215149 pf=0.92 status=variable vmaxpu=1.5 vminpu=0.93 daily="RU5_SA"
 
New "Load.BT_205706_M1" bus1="UC205706.1.2.4" phases=2 conn=delta model=2 kv=0.44 kw = 0.2514110311636626 pf=0.92 status=variable vmaxpu=1.5 vminpu=0.93 daily="RU8_SA" 
New "Load.BT_205706_M2" bus1="UC205706.1.2.4" phases=2 conn=delta model=3 kv=0.44 kw = 0.2514110311636626 pf=0.92 status=variable vmaxpu=1.5 vminpu=0.93 daily="RU8_SA"
 
New "Load.BT_205707_M1" bus1="UC205707.1.4" phases=1 conn=delta model=2 kv=0.22 kw = 0.004502012451809886 pf=0.92 status=variable vmaxpu=1.5 vminpu=0.93 daily="CO3_SA" 
New "Load.BT_205707_M2" bus1="UC205707.1.4" phases=1 conn=delta model=3 kv=0.22 kw = 0.004502012451809886 pf=0.92 status=variable vmaxpu=1.5 vminpu=0.93 daily="CO3_SA"
 
New "Load.BT_225285_M1" bus1="UC225285.1.4" phases=1 conn=delta model=2 kv=0.22 kw = 0.044518466209611 pf=0.92 status=variable vmaxpu=1.5 vminpu=0.93 daily="RU2_SA" 
New "Load.BT_225285_M2" bus1="UC225285.1.4" phases=1 conn=delta model=3 kv=0.22 kw = 0.044518466209611 pf=0.92 status=variable vmaxpu=1.5 vminpu=0.93 daily="RU2_SA"
 
New "Load.BT_225286_M1" bus1="UC225286.1.4" phases=1 conn=delta model=2 kv=0.22 kw = 0.0045327637736202195 pf=0.92 status=variable vmaxpu=1.5 vminpu=0.93 daily="RU7_SA" 
New "Load.BT_225286_M2" bus1="UC225286.1.4" phases=1 conn=delta model=3 kv=0.22 kw = 0.0045327637736202195 pf=0.92 status=variable vmaxpu=1.5 vminpu=0.93 daily="RU7_SA"
 
New "Load.BT_225289_M1" bus1="UC225289.1.4" phases=1 conn=delta model=2 kv=0.22 kw = 0.3192213891155379 pf=0.92 status=variable vmaxpu=1.5 vminpu=0.93 daily="RU4_SA" 
New "Load.BT_225289_M2" bus1="UC225289.1.4" phases=1 conn=delta model=3 kv=0.22 kw = 0.3192213891155379 pf=0.92 status=variable vmaxpu=1.5 vminpu=0.93 daily="RU4_SA"
 
New "Load.BT_225290_M1" bus1="UC225290.2.4" phases=1 conn=delta model=2 kv=0.22 kw = 0.12366127820367626 pf=0.92 status=variable vmaxpu=1.5 vminpu=0.93 daily="RU3_SA" 
New "Load.BT_225290_M2" bus1="UC225290.2.4" phases=1 conn=delta model=3 kv=0.22 kw = 0.12366127820367626 pf=0.92 status=variable vmaxpu=1.5 vminpu=0.93 daily="RU3_SA"
 
New "Load.BT_205695_M1" bus1="UC205695.1.4" phases=1 conn=delta model=2 kv=0.22 kw = 0.30139918940673 pf=0.92 status=variable vmaxpu=1.5 vminpu=0.93 daily="RU8_SA" 
New "Load.BT_205695_M2" bus1="UC205695.1.4" phases=1 conn=delta model=3 kv=0.22 kw = 0.30139918940673 pf=0.92 status=variable vmaxpu=1.5 vminpu=0.93 daily="RU8_SA"
 
New "Load.BT_205699_M1" bus1="UC205699.1.4" phases=1 conn=delta model=2 kv=0.22 kw = 0.0 pf=0.92 status=variable vmaxpu=1.5 vminpu=0.93 daily="RU8_SA" 
New "Load.BT_205699_M2" bus1="UC205699.1.4" phases=1 conn=delta model=3 kv=0.22 kw = 0.0 pf=0.92 status=variable vmaxpu=1.5 vminpu=0.93 daily="RU8_SA"
 
New "Load.BT_205700_M1" bus1="UC205700.1.4" phases=1 conn=delta model=2 kv=0.22 kw = 0.3173605522379593 pf=0.92 status=variable vmaxpu=1.5 vminpu=0.93 daily="RU5_SA" 
New "Load.BT_205700_M2" bus1="UC205700.1.4" phases=1 conn=delta model=3 kv=0.22 kw = 0.3173605522379593 pf=0.92 status=variable vmaxpu=1.5 vminpu=0.93 daily="RU5_SA"
 
New "Load.BT_205703_M1" bus1="UC205703.1.4" phases=1 conn=delta model=2 kv=0.22 kw = 0.0 pf=0.92 status=variable vmaxpu=1.5 vminpu=0.93 daily="RU1_SA" 
New "Load.BT_205703_M2" bus1="UC205703.1.4" phases=1 conn=delta model=3 kv=0.22 kw = 0.0 pf=0.92 status=variable vmaxpu=1.5 vminpu=0.93 daily="RU1_SA"
 
New "Load.BT_218342_M1" bus1="UC218342.1.4" phases=1 conn=delta model=2 kv=0.22 kw = 0.09224648506760791 pf=0.92 status=variable vmaxpu=1.5 vminpu=0.93 daily="RU4_SA" 
New "Load.BT_218342_M2" bus1="UC218342.1.4" phases=1 conn=delta model=3 kv=0.22 kw = 0.09224648506760791 pf=0.92 status=variable vmaxpu=1.5 vminpu=0.93 daily="RU4_SA"
 
New "Load.BT_224968_M1" bus1="UC224968.2.4" phases=1 conn=delta model=2 kv=0.22 kw = 0.011553601366544637 pf=0.92 status=variable vmaxpu=1.5 vminpu=0.93 daily="RU1_SA" 
New "Load.BT_224968_M2" bus1="UC224968.2.4" phases=1 conn=delta model=3 kv=0.22 kw = 0.011553601366544637 pf=0.92 status=variable vmaxpu=1.5 vminpu=0.93 daily="RU1_SA"
 
New "Load.BT_225281_M1" bus1="UC225281.1.4" phases=1 conn=delta model=2 kv=0.22 kw = 0.12233549147604496 pf=0.92 status=variable vmaxpu=1.5 vminpu=0.93 daily="RE6_SA" 
New "Load.BT_225281_M2" bus1="UC225281.1.4" phases=1 conn=delta model=3 kv=0.22 kw = 0.12233549147604496 pf=0.92 status=variable vmaxpu=1.5 vminpu=0.93 daily="RE6_SA"
 
New "Load.BT_218304_M1" bus1="UC218304.1.2.3.4" phases=3 conn=delta model=2 kv=0.38 kw = 0.1529807773596824 pf=0.92 status=variable vmaxpu=1.5 vminpu=0.93 daily="RU7_SA" 
New "Load.BT_218304_M2" bus1="UC218304.1.2.3.4" phases=3 conn=delta model=3 kv=0.38 kw = 0.1529807773596824 pf=0.92 status=variable vmaxpu=1.5 vminpu=0.93 daily="RU7_SA"
 
New "Load.BT_218305_M1" bus1="UC218305.3.4" phases=1 conn=delta model=2 kv=0.22 kw = 0.009186522062179394 pf=0.92 status=variable vmaxpu=1.5 vminpu=0.93 daily="RU1_SA" 
New "Load.BT_218305_M2" bus1="UC218305.3.4" phases=1 conn=delta model=3 kv=0.22 kw = 0.009186522062179394 pf=0.92 status=variable vmaxpu=1.5 vminpu=0.93 daily="RU1_SA"
 
New "Load.BT_218309_M1" bus1="UC218309.1.4" phases=1 conn=delta model=2 kv=0.22 kw = 0.008904726906897817 pf=0.92 status=variable vmaxpu=1.5 vminpu=0.93 daily="RU1_SA" 
New "Load.BT_218309_M2" bus1="UC218309.1.4" phases=1 conn=delta model=3 kv=0.22 kw = 0.008904726906897817 pf=0.92 status=variable vmaxpu=1.5 vminpu=0.93 daily="RU1_SA"
 
New "Load.BT_218318_M1" bus1="UC218318.1.4" phases=1 conn=delta model=2 kv=0.22 kw = 0.20235881902281028 pf=0.92 status=variable vmaxpu=1.5 vminpu=0.93 daily="RU5_SA" 
New "Load.BT_218318_M2" bus1="UC218318.1.4" phases=1 conn=delta model=3 kv=0.22 kw = 0.20235881902281028 pf=0.92 status=variable vmaxpu=1.5 vminpu=0.93 daily="RU5_SA"
 
New "Load.BT_218320_M1" bus1="UC218320.1.4" phases=1 conn=delta model=2 kv=0.22 kw = 0.0 pf=0.92 status=variable vmaxpu=1.5 vminpu=0.93 daily="CO4_SA" 
New "Load.BT_218320_M2" bus1="UC218320.1.4" phases=1 conn=delta model=3 kv=0.22 kw = 0.0 pf=0.92 status=variable vmaxpu=1.5 vminpu=0.93 daily="CO4_SA"
 
New "Load.BT_218323_M1" bus1="UC218323.1.4" phases=1 conn=delta model=2 kv=0.22 kw = 0.26338799025882786 pf=0.92 status=variable vmaxpu=1.5 vminpu=0.93 daily="RU4_SA" 
New "Load.BT_218323_M2" bus1="UC218323.1.4" phases=1 conn=delta model=3 kv=0.22 kw = 0.26338799025882786 pf=0.92 status=variable vmaxpu=1.5 vminpu=0.93 daily="RU4_SA"
 
New "Load.BT_223646_M1" bus1="UC223646.1.4" phases=1 conn=delta model=2 kv=0.22 kw = 0.0644346221454896 pf=0.92 status=variable vmaxpu=1.5 vminpu=0.93 daily="RU2_SA" 
New "Load.BT_223646_M2" bus1="UC223646.1.4" phases=1 conn=delta model=3 kv=0.22 kw = 0.0644346221454896 pf=0.92 status=variable vmaxpu=1.5 vminpu=0.93 daily="RU2_SA"
 
New "Load.BT_205687_M1" bus1="UC205687.1.4" phases=1 conn=delta model=2 kv=0.22 kw = 0.08122667518946568 pf=0.92 status=variable vmaxpu=1.5 vminpu=0.93 daily="RU2_SA" 
New "Load.BT_205687_M2" bus1="UC205687.1.4" phases=1 conn=delta model=3 kv=0.22 kw = 0.08122667518946568 pf=0.92 status=variable vmaxpu=1.5 vminpu=0.93 daily="RU2_SA"
 
New "Load.BT_205689_M1" bus1="UC205689.1.4" phases=1 conn=delta model=2 kv=0.22 kw = 0.05506231346978203 pf=0.92 status=variable vmaxpu=1.5 vminpu=0.93 daily="RU2_SA" 
New "Load.BT_205689_M2" bus1="UC205689.1.4" phases=1 conn=delta model=3 kv=0.22 kw = 0.05506231346978203 pf=0.92 status=variable vmaxpu=1.5 vminpu=0.93 daily="RU2_SA"
 
New "Load.BT_205691_M1" bus1="UC205691.1.2.4" phases=2 conn=delta model=2 kv=0.44 kw = 0.09597556244747203 pf=0.92 status=variable vmaxpu=1.5 vminpu=0.93 daily="RU6_SA" 
New "Load.BT_205691_M2" bus1="UC205691.1.2.4" phases=2 conn=delta model=3 kv=0.44 kw = 0.09597556244747203 pf=0.92 status=variable vmaxpu=1.5 vminpu=0.93 daily="RU6_SA"
 
New "Load.BT_223645_M1" bus1="UC223645.1.4" phases=1 conn=delta model=2 kv=0.22 kw = 0.045577438398090885 pf=0.92 status=variable vmaxpu=1.5 vminpu=0.93 daily="RU8_SA" 
New "Load.BT_223645_M2" bus1="UC223645.1.4" phases=1 conn=delta model=3 kv=0.22 kw = 0.045577438398090885 pf=0.92 status=variable vmaxpu=1.5 vminpu=0.93 daily="RU8_SA"
 
New "Load.BT_223633_M1" bus1="UC223633.1.4" phases=1 conn=delta model=2 kv=0.22 kw = 0.18065988225406499 pf=0.92 status=variable vmaxpu=1.5 vminpu=0.93 daily="RU6_SA" 
New "Load.BT_223633_M2" bus1="UC223633.1.4" phases=1 conn=delta model=3 kv=0.22 kw = 0.18065988225406499 pf=0.92 status=variable vmaxpu=1.5 vminpu=0.93 daily="RU6_SA"
 
New "Load.BT_223634_M1" bus1="UC223634.1.4" phases=1 conn=delta model=2 kv=0.22 kw = 0.0679914566043033 pf=0.92 status=variable vmaxpu=1.5 vminpu=0.93 daily="RU7_SA" 
New "Load.BT_223634_M2" bus1="UC223634.1.4" phases=1 conn=delta model=3 kv=0.22 kw = 0.0679914566043033 pf=0.92 status=variable vmaxpu=1.5 vminpu=0.93 daily="RU7_SA"
 
New "Load.BT_223644_M1" bus1="UC223644.1.4" phases=1 conn=delta model=2 kv=0.22 kw = 0.09619247807309986 pf=0.92 status=variable vmaxpu=1.5 vminpu=0.93 daily="RE5_SA" 
New "Load.BT_223644_M2" bus1="UC223644.1.4" phases=1 conn=delta model=3 kv=0.22 kw = 0.09619247807309986 pf=0.92 status=variable vmaxpu=1.5 vminpu=0.93 daily="RE5_SA"
 
New "Load.BT_217026_M1" bus1="UC217026.1.4" phases=1 conn=delta model=2 kv=0.22 kw = 0.0929216573592145 pf=0.92 status=variable vmaxpu=1.5 vminpu=0.93 daily="RU7_SA" 
New "Load.BT_217026_M2" bus1="UC217026.1.4" phases=1 conn=delta model=3 kv=0.22 kw = 0.0929216573592145 pf=0.92 status=variable vmaxpu=1.5 vminpu=0.93 daily="RU7_SA"
 
New "Load.BT_217031_M1" bus1="UC217031.1.4" phases=1 conn=delta model=2 kv=0.22 kw = 0.14915992320695398 pf=0.92 status=variable vmaxpu=1.5 vminpu=0.93 daily="RE2_SA" 
New "Load.BT_217031_M2" bus1="UC217031.1.4" phases=1 conn=delta model=3 kv=0.22 kw = 0.14915992320695398 pf=0.92 status=variable vmaxpu=1.5 vminpu=0.93 daily="RE2_SA"
 
New "Load.BT_218301_M1" bus1="UC218301.1.2.4" phases=2 conn=delta model=2 kv=0.44 kw = 0.12623203219777926 pf=0.92 status=variable vmaxpu=1.5 vminpu=0.93 daily="RU4_SA" 
New "Load.BT_218301_M2" bus1="UC218301.1.2.4" phases=2 conn=delta model=3 kv=0.44 kw = 0.12623203219777926 pf=0.92 status=variable vmaxpu=1.5 vminpu=0.93 daily="RU4_SA"
 
New "Load.BT_223630_M1" bus1="UC223630.2.4" phases=1 conn=delta model=2 kv=0.22 kw = 0.08023823394895026 pf=0.92 status=variable vmaxpu=1.5 vminpu=0.93 daily="RU3_SA" 
New "Load.BT_223630_M2" bus1="UC223630.2.4" phases=1 conn=delta model=3 kv=0.22 kw = 0.08023823394895026 pf=0.92 status=variable vmaxpu=1.5 vminpu=0.93 daily="RU3_SA"
 
New "Load.BT_223631_M1" bus1="UC223631.2.4" phases=1 conn=delta model=2 kv=0.22 kw = 0.1157352370690104 pf=0.92 status=variable vmaxpu=1.5 vminpu=0.93 daily="RU6_SA" 
New "Load.BT_223631_M2" bus1="UC223631.2.4" phases=1 conn=delta model=3 kv=0.22 kw = 0.1157352370690104 pf=0.92 status=variable vmaxpu=1.5 vminpu=0.93 daily="RU6_SA"
 
New "Load.BT_222260_M1" bus1="UC222260.1.4" phases=1 conn=delta model=2 kv=0.22 kw = 0.31162750943639006 pf=0.92 status=variable vmaxpu=1.5 vminpu=0.93 daily="RU7_SA" 
New "Load.BT_222260_M2" bus1="UC222260.1.4" phases=1 conn=delta model=3 kv=0.22 kw = 0.31162750943639006 pf=0.92 status=variable vmaxpu=1.5 vminpu=0.93 daily="RU7_SA"
 
New "Load.BT_222263_M1" bus1="UC222263.1.4" phases=1 conn=delta model=2 kv=0.22 kw = 0.10739103690914933 pf=0.92 status=variable vmaxpu=1.5 vminpu=0.93 daily="RU2_SA" 
New "Load.BT_222263_M2" bus1="UC222263.1.4" phases=1 conn=delta model=3 kv=0.22 kw = 0.10739103690914933 pf=0.92 status=variable vmaxpu=1.5 vminpu=0.93 daily="RU2_SA"
 
New "Load.BT_205680_M1" bus1="UC205680.1.2.3.4" phases=3 conn=delta model=2 kv=0.38 kw = 0.07341641795970937 pf=0.92 status=variable vmaxpu=1.5 vminpu=0.93 daily="RU2_SA" 
New "Load.BT_205680_M2" bus1="UC205680.1.2.3.4" phases=3 conn=delta model=3 kv=0.38 kw = 0.07341641795970937 pf=0.92 status=variable vmaxpu=1.5 vminpu=0.93 daily="RU2_SA"
 
New "Load.BT_205681_M1" bus1="UC205681.1.2.4" phases=2 conn=delta model=2 kv=0.44 kw = 0.6130900584517385 pf=0.92 status=variable vmaxpu=1.5 vminpu=0.93 daily="RU8_SA" 
New "Load.BT_205681_M2" bus1="UC205681.1.2.4" phases=2 conn=delta model=3 kv=0.44 kw = 0.6130900584517385 pf=0.92 status=variable vmaxpu=1.5 vminpu=0.93 daily="RU8_SA"
 
New "Load.BT_205675_M1" bus1="UC205675.2.4" phases=1 conn=delta model=2 kv=0.22 kw = 0.023221503822289703 pf=0.92 status=variable vmaxpu=1.5 vminpu=0.93 daily="RU5_SA" 
New "Load.BT_205675_M2" bus1="UC205675.2.4" phases=1 conn=delta model=3 kv=0.22 kw = 0.023221503822289703 pf=0.92 status=variable vmaxpu=1.5 vminpu=0.93 daily="RU5_SA"
 
New "Load.BT_238952_M1" bus1="UC238952.2.4" phases=1 conn=delta model=2 kv=0.22 kw = 0.0 pf=0.92 status=variable vmaxpu=1.5 vminpu=0.93 daily="RE3_SA" 
New "Load.BT_238952_M2" bus1="UC238952.2.4" phases=1 conn=delta model=3 kv=0.22 kw = 0.0 pf=0.92 status=variable vmaxpu=1.5 vminpu=0.93 daily="RE3_SA"
 
New "Load.BT_205735_M1" bus1="UC205735.3.1.4" phases=2 conn=delta model=2 kv=0.38 kw = 0.6678946813649038 pf=0.92 status=variable vmaxpu=1.5 vminpu=0.93 daily="RU5_SA" 
New "Load.BT_205735_M2" bus1="UC205735.3.1.4" phases=2 conn=delta model=3 kv=0.38 kw = 0.6678946813649038 pf=0.92 status=variable vmaxpu=1.5 vminpu=0.93 daily="RU5_SA"
 
New "Load.BT_238959_M1" bus1="UC238959.1.4" phases=1 conn=delta model=2 kv=0.22 kw = 0.04402913395867918 pf=0.92 status=variable vmaxpu=1.5 vminpu=0.93 daily="RE2_SA" 
New "Load.BT_238959_M2" bus1="UC238959.1.4" phases=1 conn=delta model=3 kv=0.22 kw = 0.04402913395867918 pf=0.92 status=variable vmaxpu=1.5 vminpu=0.93 daily="RE2_SA"
 
New "Load.BT_221689_M1" bus1="UC221689.1.4" phases=1 conn=delta model=2 kv=0.22 kw = 0.541979646762195 pf=0.92 status=variable vmaxpu=1.5 vminpu=0.93 daily="RU6_SA" 
New "Load.BT_221689_M2" bus1="UC221689.1.4" phases=1 conn=delta model=3 kv=0.22 kw = 0.541979646762195 pf=0.92 status=variable vmaxpu=1.5 vminpu=0.93 daily="RU6_SA"
 
New "Load.BT_238205_M1" bus1="UC238205.2.4" phases=1 conn=delta model=2 kv=0.22 kw = 0.024519586883863773 pf=0.92 status=variable vmaxpu=1.5 vminpu=0.93 daily="RE1_SA" 
New "Load.BT_238205_M2" bus1="UC238205.2.4" phases=1 conn=delta model=3 kv=0.22 kw = 0.024519586883863773 pf=0.92 status=variable vmaxpu=1.5 vminpu=0.93 daily="RE1_SA"
 
New "Load.BT_235961_M1" bus1="UC235961.1.4" phases=1 conn=delta model=2 kv=0.22 kw = 0.05222199721406567 pf=0.92 status=variable vmaxpu=1.5 vminpu=0.93 daily="RU6_SA" 
New "Load.BT_235961_M2" bus1="UC235961.1.4" phases=1 conn=delta model=3 kv=0.22 kw = 0.05222199721406567 pf=0.92 status=variable vmaxpu=1.5 vminpu=0.93 daily="RU6_SA"
 
New "Load.BT_237573_M1" bus1="UC237573.1.4" phases=1 conn=delta model=2 kv=0.22 kw = 0.04531100270058367 pf=0.92 status=variable vmaxpu=1.5 vminpu=0.93 daily="RU3_SA" 
New "Load.BT_237573_M2" bus1="UC237573.1.4" phases=1 conn=delta model=3 kv=0.22 kw = 0.04531100270058367 pf=0.92 status=variable vmaxpu=1.5 vminpu=0.93 daily="RU3_SA"
 
New "Load.BT_237359_M1" bus1="UC237359.2.4" phases=1 conn=delta model=2 kv=0.22 kw = 0.09958077967939302 pf=0.92 status=variable vmaxpu=1.5 vminpu=0.93 daily="RU2_SA" 
New "Load.BT_237359_M2" bus1="UC237359.2.4" phases=1 conn=delta model=3 kv=0.22 kw = 0.09958077967939302 pf=0.92 status=variable vmaxpu=1.5 vminpu=0.93 daily="RU2_SA"
 
New "Load.BT_237167_M1" bus1="UC237167.2.4" phases=1 conn=delta model=2 kv=0.22 kw = 0.15591581137823085 pf=0.92 status=variable vmaxpu=1.5 vminpu=0.93 daily="RU5_SA" 
New "Load.BT_237167_M2" bus1="UC237167.2.4" phases=1 conn=delta model=3 kv=0.22 kw = 0.15591581137823085 pf=0.92 status=variable vmaxpu=1.5 vminpu=0.93 daily="RU5_SA"
 
New "Load.BT_236486_M1" bus1="UC236486.1.4" phases=1 conn=delta model=2 kv=0.22 kw = 0.19618534088527373 pf=0.92 status=variable vmaxpu=1.5 vminpu=0.93 daily="RU6_SA" 
New "Load.BT_236486_M2" bus1="UC236486.1.4" phases=1 conn=delta model=3 kv=0.22 kw = 0.19618534088527373 pf=0.92 status=variable vmaxpu=1.5 vminpu=0.93 daily="RU6_SA"
 
New "Load.BT_2836677_M1" bus1="UC2836677.1.4" phases=1 conn=delta model=2 kv=0.22 kw = 0.061310519253587076 pf=0.92 status=variable vmaxpu=1.5 vminpu=0.93 daily="RU2_SA" 
New "Load.BT_2836677_M2" bus1="UC2836677.1.4" phases=1 conn=delta model=3 kv=0.22 kw = 0.061310519253587076 pf=0.92 status=variable vmaxpu=1.5 vminpu=0.93 daily="RU2_SA"
 
New "Load.BT_2836674_M1" bus1="UC2836674.2.4" phases=1 conn=delta model=2 kv=0.22 kw = 0.03810794391296684 pf=0.92 status=variable vmaxpu=1.5 vminpu=0.93 daily="RU6_SA" 
New "Load.BT_2836674_M2" bus1="UC2836674.2.4" phases=1 conn=delta model=3 kv=0.22 kw = 0.03810794391296684 pf=0.92 status=variable vmaxpu=1.5 vminpu=0.93 daily="RU6_SA"
 
New "Load.BT_235585_M1" bus1="UC235585.1.2.4" phases=2 conn=delta model=2 kv=0.44 kw = 1.1008961574857086 pf=0.92 status=variable vmaxpu=1.5 vminpu=0.93 daily="RU6_SA" 
New "Load.BT_235585_M2" bus1="UC235585.1.2.4" phases=2 conn=delta model=3 kv=0.44 kw = 1.1008961574857086 pf=0.92 status=variable vmaxpu=1.5 vminpu=0.93 daily="RU6_SA"
 
New "Load.BT_2805422_M1" bus1="UC2805422.1.2.4" phases=2 conn=delta model=2 kv=0.44 kw = 0.021609659768687457 pf=0.92 status=variable vmaxpu=1.5 vminpu=0.93 daily="CO3_SA" 
New "Load.BT_2805422_M2" bus1="UC2805422.1.2.4" phases=2 conn=delta model=3 kv=0.44 kw = 0.021609659768687457 pf=0.92 status=variable vmaxpu=1.5 vminpu=0.93 daily="CO3_SA"
 
New "Load.BT_2835970_M1" bus1="UC2835970.1.4" phases=1 conn=delta model=2 kv=0.22 kw = 0.05623385205424547 pf=0.92 status=variable vmaxpu=1.5 vminpu=0.93 daily="RU2_SA" 
New "Load.BT_2835970_M2" bus1="UC2835970.1.4" phases=1 conn=delta model=3 kv=0.22 kw = 0.05623385205424547 pf=0.92 status=variable vmaxpu=1.5 vminpu=0.93 daily="RU2_SA"
 
New "Load.BT_236232_M1" bus1="UC236232.1.2.3.4" phases=3 conn=delta model=2 kv=0.38 kw = 0.20861940826727068 pf=0.92 status=variable vmaxpu=1.5 vminpu=0.93 daily="RU3_SA" 
New "Load.BT_236232_M2" bus1="UC236232.1.2.3.4" phases=3 conn=delta model=3 kv=0.38 kw = 0.20861940826727068 pf=0.92 status=variable vmaxpu=1.5 vminpu=0.93 daily="RU3_SA"
 
New "Load.BT_205652_M1" bus1="UC205652.1.4" phases=1 conn=delta model=2 kv=0.22 kw = 0.23774396770439457 pf=0.92 status=variable vmaxpu=1.5 vminpu=0.93 daily="RU5_SA" 
New "Load.BT_205652_M2" bus1="UC205652.1.4" phases=1 conn=delta model=3 kv=0.22 kw = 0.23774396770439457 pf=0.92 status=variable vmaxpu=1.5 vminpu=0.93 daily="RU5_SA"
 
New "Load.BT_205761_M1" bus1="UC205761.1.2.3.4" phases=3 conn=delta model=2 kv=0.38 kw = 1.0615132426910197 pf=0.92 status=variable vmaxpu=1.5 vminpu=0.93 daily="RU8_SA" 
New "Load.BT_205761_M2" bus1="UC205761.1.2.3.4" phases=3 conn=delta model=3 kv=0.38 kw = 1.0615132426910197 pf=0.92 status=variable vmaxpu=1.5 vminpu=0.93 daily="RU8_SA"
 
New "Load.BT_225860_M1" bus1="UC225860.2.4" phases=1 conn=delta model=2 kv=0.22 kw = 0.17906874581918333 pf=0.92 status=variable vmaxpu=1.5 vminpu=0.93 daily="RE8_SA" 
New "Load.BT_225860_M2" bus1="UC225860.2.4" phases=1 conn=delta model=3 kv=0.22 kw = 0.17906874581918333 pf=0.92 status=variable vmaxpu=1.5 vminpu=0.93 daily="RE8_SA"
 
New "Load.BT_235692_M1" bus1="UC235692.1.4" phases=1 conn=delta model=2 kv=0.22 kw = 0.06563597324493592 pf=0.92 status=variable vmaxpu=1.5 vminpu=0.93 daily="RE7_SA" 
New "Load.BT_235692_M2" bus1="UC235692.1.4" phases=1 conn=delta model=3 kv=0.22 kw = 0.06563597324493592 pf=0.92 status=variable vmaxpu=1.5 vminpu=0.93 daily="RE7_SA"
 
New "Load.BT_235691_M1" bus1="UC235691.2.4" phases=1 conn=delta model=2 kv=0.22 kw = 0.06311601609888963 pf=0.92 status=variable vmaxpu=1.5 vminpu=0.93 daily="RU4_SA" 
...